<?xml version="1.0" encoding="UTF-8"?>
<!DOCTYPE facilities SYSTEM "http://www.matsim.org/files/dtd/facilities_v1.dtd">
<facilities name="Land Use">

<!-- ====================================================================== -->

	<facility id="1015581298" x="252492.18373753637" y="9854892.337066684" desc="Victorius Youth Group">
		<activity type="leisure">
		</activity>

		<activity type="work">
		</activity>

	</facility>

<!-- ====================================================================== -->

	<facility id="1015583776" x="252714.31622272584" y="9854459.313730802" desc="Egesa mali/serial rahisi store">
		<activity type="shopping">
		</activity>

		<activity type="work">
		</activity>

	</facility>

<!-- ====================================================================== -->

	<facility id="1015625611" x="252778.32558642275" y="9854828.247005764" desc="Christ Life Liberation">
		<activity type="other">
		</activity>

		<activity type="work">
		</activity>

	</facility>

<!-- ====================================================================== -->

	<facility id="1015625631" x="252585.12833356223" y="9855048.330582235" desc="Inua Mimi Rescue Centre">
		<activity type="education">
		</activity>

		<activity type="work">
		</activity>

	</facility>

<!-- ====================================================================== -->

	<facility id="1015636343" x="252088.91164140424" y="9855355.99576375" desc="Killer Advanced Institute">
		<activity type="education">
		</activity>

		<activity type="work">
		</activity>

	</facility>

<!-- ====================================================================== -->

	<facility id="1015636347" x="252204.8607201829" y="9855332.869588159" desc="Kibera Christian Hope Centre and Computer College">
		<activity type="education">
		</activity>

		<activity type="work">
		</activity>

	</facility>

<!-- ====================================================================== -->

	<facility id="1015636350" x="252383.8987446608" y="9855286.802603234" desc="Equity Bank">
		<activity type="other">
		</activity>

		<activity type="work">
		</activity>

	</facility>

<!-- ====================================================================== -->

	<facility id="1015636360" x="252164.733851219" y="9855386.813914299" desc="Co-operative Bank of Kenya">
		<activity type="other">
		</activity>

		<activity type="work">
		</activity>

	</facility>

<!-- ====================================================================== -->

	<facility id="1015701516" x="254047.7307753917" y="9855354.221027462" desc="Kibera All Nation">
		<activity type="other">
		</activity>

		<activity type="work">
		</activity>

	</facility>

<!-- ====================================================================== -->

	<facility id="1015701522" x="254085.15705715583" y="9855218.177475471" desc="Camp Mestella">
		<activity type="leisure">
		</activity>

		<activity type="work">
		</activity>

	</facility>

<!-- ====================================================================== -->

	<facility id="107156607" x="253816.17103384738" y="9855221.856016336">
		<activity type="home">
		</activity>

		<activity type="work">
		</activity>

	</facility>

<!-- ====================================================================== -->

	<facility id="107156609" x="253815.8489115019" y="9855214.715630617">
		<activity type="home">
		</activity>

		<activity type="work">
		</activity>

	</facility>

<!-- ====================================================================== -->

	<facility id="107554932" x="254962.12231419978" y="9854807.403199762">
		<activity type="home">
		</activity>

		<activity type="work">
		</activity>

	</facility>

<!-- ====================================================================== -->

	<facility id="109073746" x="253084.06188352266" y="9855504.900897698" desc="Makina Market">
		<activity type="shopping">
		</activity>

		<activity type="work">
		</activity>

	</facility>

<!-- ====================================================================== -->

	<facility id="113961901" x="253628.0366352075" y="9854918.077688735">
		<activity type="home">
		</activity>

		<activity type="work">
		</activity>

	</facility>

<!-- ====================================================================== -->

	<facility id="114956763" x="253512.11278621046" y="9854958.127879718">
		<activity type="home">
		</activity>

		<activity type="work">
		</activity>

	</facility>

<!-- ====================================================================== -->

	<facility id="1224030089" x="253209.782858212" y="9855295.1330616" desc="Map Kibera Trust">
		<activity type="work">
		</activity>

	</facility>

<!-- ====================================================================== -->

	<facility id="1224070569" x="253209.19797304028" y="9855289.292130122" desc="Barber and Saloon">
		<activity type="shopping">
		</activity>

		<activity type="work">
		</activity>

	</facility>

<!-- ====================================================================== -->

	<facility id="1224070573" x="253209.10651366887" y="9855292.002090089" desc="Community Cafe">
		<activity type="leisure">
		</activity>

		<activity type="work">
		</activity>

	</facility>

<!-- ====================================================================== -->

	<facility id="1226714981" x="253071.2780289762" y="9855294.335853562" desc="Community Kerosene Supply">
		<activity type="other">
		</activity>

		<activity type="work">
		</activity>

	</facility>

<!-- ====================================================================== -->

	<facility id="1232050177" x="252411.5876880783" y="9854909.477017058" desc="Rainbow Butchery">
		<activity type="shopping">
		</activity>

		<activity type="work">
		</activity>

	</facility>

<!-- ====================================================================== -->

	<facility id="1232050179" x="252411.89266630693" y="9854929.586995954" desc="Equity Agent">
		<activity type="other">
		</activity>

		<activity type="work">
		</activity>

	</facility>

<!-- ====================================================================== -->

	<facility id="1249726618" x="253889.11026610527" y="9855554.734104864" desc="St.Domnic Catholic Church">
		<activity type="other">
		</activity>

		<activity type="work">
		</activity>

	</facility>

<!-- ====================================================================== -->

	<facility id="1249726628" x="253554.71370646177" y="9855486.810463643" desc="Bakah Investment LTD">
		<activity type="shopping">
		</activity>

		<activity type="work">
		</activity>

	</facility>

<!-- ====================================================================== -->

	<facility id="1249726647" x="253560.57754217958" y="9855427.349722749" desc="Rahisi Chemist">
		<activity type="pharmacy">
		</activity>

		<activity type="work">
		</activity>

	</facility>

<!-- ====================================================================== -->

	<facility id="1249726679" x="253943.13176024467" y="9855752.315064913" desc="Egesa Children Centre">
		<activity type="education">
		</activity>

		<activity type="work">
		</activity>

	</facility>

<!-- ====================================================================== -->

	<facility id="1249779951" x="253184.39414992204" y="9855641.796784768" desc="community chemist">
		<activity type="shopping">
		</activity>

		<activity type="work">
		</activity>

	</facility>

<!-- ====================================================================== -->

	<facility id="1249779967" x="253267.48680402816" y="9855558.013678217">
		<activity type="toilets">
		</activity>

		<activity type="work">
		</activity>

	</facility>

<!-- ====================================================================== -->

	<facility id="1249779969" x="253168.46880207674" y="9855660.266328258" desc="Brimat Chemist">
		<activity type="pharmacy">
		</activity>

		<activity type="shopping">
		</activity>

		<activity type="work">
		</activity>

	</facility>

<!-- ====================================================================== -->

	<facility id="1250954081" x="253757.14618779084" y="9855244.800493384" desc="Chemist">
		<activity type="shopping">
		</activity>

		<activity type="work">
		</activity>

	</facility>

<!-- ====================================================================== -->

	<facility id="1250967848" x="254456.1781790183" y="9855148.408692576">
		<activity type="drinking_water">
		</activity>

		<activity type="work">
		</activity>

	</facility>

<!-- ====================================================================== -->

	<facility id="1250967850" x="255110.84822834193" y="9855083.37991557" desc="Life in Christ church">
		<activity type="other">
		</activity>

		<activity type="work">
		</activity>

	</facility>

<!-- ====================================================================== -->

	<facility id="1279097777" x="254918.2429905481" y="9855027.860037336">
		<activity type="drinking_water">
		</activity>

		<activity type="work">
		</activity>

	</facility>

<!-- ====================================================================== -->

	<facility id="1367567684" x="253548.15496111216" y="9854845.776266849" desc="WSUP (Jack Ouma)">
		<activity type="drinking_water">
		</activity>

		<activity type="work">
		</activity>

	</facility>

<!-- ====================================================================== -->

	<facility id="1367567688" x="253076.79045893197" y="9854727.178490851" desc="WSUP (Mwangi)">
		<activity type="drinking_water">
		</activity>

		<activity type="work">
		</activity>

	</facility>

<!-- ====================================================================== -->

	<facility id="1367567689" x="252888.1933489233" y="9854682.07951506" desc="WSUP (Jasho Letu)">
		<activity type="drinking_water">
		</activity>

		<activity type="work">
		</activity>

	</facility>

<!-- ====================================================================== -->

	<facility id="1367567690" x="253360.1268573081" y="9854912.7744192" desc="WSUP (Francis Onyango)">
		<activity type="drinking_water">
		</activity>

		<activity type="work">
		</activity>

	</facility>

<!-- ====================================================================== -->

	<facility id="1367567691" x="253037.40946096476" y="9854881.83724551" desc="WSUP (Kibera Kids Youth Organisation)">
		<activity type="drinking_water">
		</activity>

		<activity type="work">
		</activity>

	</facility>

<!-- ====================================================================== -->

	<facility id="1367567692" x="253414.40281254036" y="9855035.404672887" desc="WSUP (Ogembo)">
		<activity type="drinking_water">
		</activity>

		<activity type="work">
		</activity>

	</facility>

<!-- ====================================================================== -->

	<facility id="1367567693" x="253210.8453032995" y="9854673.870961595" desc="WSUP (Charles Kyalo)">
		<activity type="drinking_water">
		</activity>

		<activity type="work">
		</activity>

	</facility>

<!-- ====================================================================== -->

	<facility id="1367567694" x="252423.69044688914" y="9854895.649910744" desc="WSUP (Lucas)">
		<activity type="drinking_water">
		</activity>

		<activity type="work">
		</activity>

	</facility>

<!-- ====================================================================== -->

	<facility id="1367601146" x="253190.62834707915" y="9854911.761449978" desc="WASUP (Councillor Odiawo)">
		<activity type="toilets">
		</activity>

		<activity type="work">
		</activity>

	</facility>

<!-- ====================================================================== -->

	<facility id="1367601148" x="253305.57467838476" y="9854850.704910314" desc="WASUP">
		<activity type="toilets">
		</activity>

		<activity type="work">
		</activity>

	</facility>

<!-- ====================================================================== -->

	<facility id="1367601151" x="253146.17028801845" y="9854803.397793097" desc="WASUP">
		<activity type="toilets">
		</activity>

		<activity type="work">
		</activity>

	</facility>

<!-- ====================================================================== -->

	<facility id="1367601153" x="252457.56993753472" y="9854968.884659026" desc="WASUP (Soweto west nursery and primary school)">
		<activity type="toilets">
		</activity>

		<activity type="work">
		</activity>

	</facility>

<!-- ====================================================================== -->

	<facility id="1367601155" x="252950.82895288" y="9854768.170820132" desc="WASUP">
		<activity type="toilets">
		</activity>

		<activity type="work">
		</activity>

	</facility>

<!-- ====================================================================== -->

	<facility id="1367647606" x="253772.10043785154" y="9855229.117626678" desc="Nakhayo Medical Clinic">
		<activity type="hospital">
		</activity>

		<activity type="work">
		</activity>

	</facility>

<!-- ====================================================================== -->

	<facility id="1367652439" x="253828.5685110885" y="9855353.353211783" desc="WSUP (Aziza Docka Toilets)">
		<activity type="toilets">
		</activity>

		<activity type="work">
		</activity>

	</facility>

<!-- ====================================================================== -->

	<facility id="1367652446" x="253728.49951489482" y="9855423.360809673" desc="WSUP (Wahaab Toilet)">
		<activity type="toilets">
		</activity>

		<activity type="work">
		</activity>

	</facility>

<!-- ====================================================================== -->

	<facility id="1367652447" x="253636.34608003165" y="9855316.48212916" desc="WSUP (Girls Soccer School)">
		<activity type="toilets">
		</activity>

		<activity type="work">
		</activity>

	</facility>

<!-- ====================================================================== -->

	<facility id="1367652448" x="253863.89978608867" y="9855181.911349481" desc="WSUP (Dogoo Toilets)">
		<activity type="toilets">
		</activity>

		<activity type="work">
		</activity>

	</facility>

<!-- ====================================================================== -->

	<facility id="1367652449" x="253700.74343147126" y="9855399.941575501" desc="WSUP (Halima Toilet)">
		<activity type="toilets">
		</activity>

		<activity type="work">
		</activity>

	</facility>

<!-- ====================================================================== -->

	<facility id="1367652450" x="253710.7575664824" y="9855078.197643463" desc="WSUP (Amina Ousman Toilets)">
		<activity type="toilets">
		</activity>

		<activity type="work">
		</activity>

	</facility>

<!-- ====================================================================== -->

	<facility id="1367652451" x="253749.07082723832" y="9855211.45444559" desc="WSUP (Rhoda Toilets)">
		<activity type="toilets">
		</activity>

		<activity type="work">
		</activity>

	</facility>

<!-- ====================================================================== -->

	<facility id="1367652452" x="253959.5548672598" y="9855079.921676423" desc="WSUP (Kaido Toilets)">
		<activity type="toilets">
		</activity>

		<activity type="work">
		</activity>

	</facility>

<!-- ====================================================================== -->

	<facility id="1367652453" x="253677.2185584704" y="9855451.522077905" desc="WSUP (White House Toilet)">
		<activity type="toilets">
		</activity>

		<activity type="work">
		</activity>

	</facility>

<!-- ====================================================================== -->

	<facility id="1367652454" x="253369.60981761623" y="9855066.314779807" desc="WSUP (Ogembo Water Tank)">
		<activity type="drinking_water">
		</activity>

		<activity type="work">
		</activity>

	</facility>

<!-- ====================================================================== -->

	<facility id="1367652455" x="253891.270752754" y="9855452.761467932" desc="WSUP (Zuhura Ahmed Toilets)">
		<activity type="toilets">
		</activity>

		<activity type="work">
		</activity>

	</facility>

<!-- ====================================================================== -->

	<facility id="1367652456" x="253626.83021306564" y="9855086.353138713">
		<activity type="drinking_water">
		</activity>

		<activity type="work">
		</activity>

	</facility>

<!-- ====================================================================== -->

	<facility id="1367652457" x="253514.9495998211" y="9855105.246619731" desc="WSUP (Fatuma Toilet)">
		<activity type="toilets">
		</activity>

		<activity type="work">
		</activity>

	</facility>

<!-- ====================================================================== -->

	<facility id="1367652458" x="253879.45996011875" y="9855223.936069166" desc="WSUP (Aisha Toilet)">
		<activity type="toilets">
		</activity>

		<activity type="work">
		</activity>

	</facility>

<!-- ====================================================================== -->

	<facility id="1376590138" x="253880.80896168135" y="9855385.952789688" desc="Kigondi (WSUP)">
		<activity type="toilets">
		</activity>

		<activity type="work">
		</activity>

	</facility>

<!-- ====================================================================== -->

	<facility id="1376590139" x="253540.97945452682" y="9855381.472005188" desc="Gange (WSUP)">
		<activity type="toilets">
		</activity>

		<activity type="work">
		</activity>

	</facility>

<!-- ====================================================================== -->

	<facility id="1376590140" x="253608.15039975365" y="9855248.761703048" desc="Alaksen Ablution Bloc (WSUP)">
		<activity type="toilets">
		</activity>

		<activity type="work">
		</activity>

	</facility>

<!-- ====================================================================== -->

	<facility id="1376590141" x="253710.45518610743" y="9855572.529429024" desc="Mohammed faraj (WSUP)">
		<activity type="toilets">
		</activity>

		<activity type="work">
		</activity>

	</facility>

<!-- ====================================================================== -->

	<facility id="1376590142" x="253788.02746522194" y="9855360.142331814" desc="Halima Ibrahim (WSUP)">
		<activity type="toilets">
		</activity>

		<activity type="work">
		</activity>

	</facility>

<!-- ====================================================================== -->

	<facility id="1376590143" x="253846.2103031642" y="9855420.986780124" desc="Maza Fatuma (WSUP)">
		<activity type="toilets">
		</activity>

		<activity type="work">
		</activity>

	</facility>

<!-- ====================================================================== -->

	<facility id="1376590144" x="253997.23380912957" y="9855124.58742669" desc="Nema Mohammed (WSUP)">
		<activity type="toilets">
		</activity>

		<activity type="work">
		</activity>

	</facility>

<!-- ====================================================================== -->

	<facility id="1376590145" x="253748.76313854742" y="9855446.762370456" desc="Maza Majengo (WSUP)">
		<activity type="toilets">
		</activity>

		<activity type="work">
		</activity>

	</facility>

<!-- ====================================================================== -->

	<facility id="1376590147" x="254058.4540396933" y="9855364.30734482" desc="Progressive Youth Group (WSUP)">
		<activity type="toilets">
		</activity>

		<activity type="work">
		</activity>

	</facility>

<!-- ====================================================================== -->

	<facility id="1377422251" x="254303.36489182673" y="9855366.934240771" desc="Vision Mothers Group (KWAHO)">
		<activity type="drinking_water">
		</activity>

		<activity type="work">
		</activity>

	</facility>

<!-- ====================================================================== -->

	<facility id="1377422258" x="254373.31249702128" y="9854912.408987809" desc="Burak Youth Group (KWAHO)">
		<activity type="drinking_water">
		</activity>

		<activity type="work">
		</activity>

	</facility>

<!-- ====================================================================== -->

	<facility id="1377422264" x="254285.47945740246" y="9855399.040577205" desc="CHW - Mashimoni (KWAHO)">
		<activity type="drinking_water">
		</activity>

		<activity type="work">
		</activity>

	</facility>

<!-- ====================================================================== -->

	<facility id="1377422271" x="253133.77588544463" y="9854995.589623138" desc="Vision Brother Youth Group (KWAHO)">
		<activity type="drinking_water">
		</activity>

		<activity type="work">
		</activity>

	</facility>

<!-- ====================================================================== -->

	<facility id="1377422279" x="254034.3157879619" y="9855366.642155232" desc="Makina - KWAHO Women Group">
		<activity type="drinking_water">
		</activity>

		<activity type="work">
		</activity>

	</facility>

<!-- ====================================================================== -->

	<facility id="1377422287" x="253563.2687975564" y="9854813.36878072" desc="Mama Okinda (kWAHO)">
		<activity type="drinking_water">
		</activity>

		<activity type="work">
		</activity>

	</facility>

<!-- ====================================================================== -->

	<facility id="1377422295" x="253411.37588777475" y="9855021.420413353" desc="Kisumu Ndogo Sodis Women Group (KWAHO)">
		<activity type="drinking_water">
		</activity>

		<activity type="work">
		</activity>

	</facility>

<!-- ====================================================================== -->

	<facility id="1377422296" x="253853.70767180447" y="9855188.11883442" desc="CHW - Kisumu Ndogo (KWAHO)">
		<activity type="drinking_water">
		</activity>

		<activity type="work">
		</activity>

	</facility>

<!-- ====================================================================== -->

	<facility id="1377422297" x="253893.1016367025" y="9855118.644095747" desc="CHW - Lindi">
		<activity type="drinking_water">
		</activity>

		<activity type="work">
		</activity>

	</facility>

<!-- ====================================================================== -->

	<facility id="1377422298" x="254328.53122550726" y="9854766.470724974" desc="Anwa Junior Academy (KWAHO)">
		<activity type="drinking_water">
		</activity>

		<activity type="work">
		</activity>

	</facility>

<!-- ====================================================================== -->

	<facility id="1377422299" x="253671.05531490664" y="9854854.03728537" desc="Uyoma women group (KWAHO)">
		<activity type="drinking_water">
		</activity>

		<activity type="work">
		</activity>

	</facility>

<!-- ====================================================================== -->

	<facility id="1377422300" x="253781.18363821035" y="9854991.018964307" desc="Gotafogo Youth Group (KWAHO)">
		<activity type="drinking_water">
		</activity>

		<activity type="work">
		</activity>

	</facility>

<!-- ====================================================================== -->

	<facility id="1606545232" x="252396.16770190763" y="9855374.309523162" desc="KrisDarling">
		<activity type="leisure">
		</activity>

		<activity type="work">
		</activity>

	</facility>

<!-- ====================================================================== -->

	<facility id="164925793" x="253840.19806705363" y="9855017.634940235">
		<activity type="home">
		</activity>

		<activity type="work">
		</activity>

	</facility>

<!-- ====================================================================== -->

	<facility id="164925794" x="254128.80455802623" y="9855349.906589743">
		<activity type="home">
		</activity>

		<activity type="work">
		</activity>

	</facility>

<!-- ====================================================================== -->

	<facility id="164925798" x="253796.688304464" y="9854906.8281259">
		<activity type="home">
		</activity>

		<activity type="work">
		</activity>

	</facility>

<!-- ====================================================================== -->

	<facility id="164925799" x="253675.36433109455" y="9854903.723196996">
		<activity type="home">
		</activity>

		<activity type="work">
		</activity>

	</facility>

<!-- ====================================================================== -->

	<facility id="164925800" x="254061.72861532305" y="9855375.255417429">
		<activity type="home">
		</activity>

		<activity type="work">
		</activity>

	</facility>

<!-- ====================================================================== -->

	<facility id="164925806" x="253743.55142537493" y="9854994.287519364">
		<activity type="home">
		</activity>

		<activity type="work">
		</activity>

	</facility>

<!-- ====================================================================== -->

	<facility id="164925808" x="254082.51076263003" y="9855359.73254149">
		<activity type="home">
		</activity>

		<activity type="work">
		</activity>

	</facility>

<!-- ====================================================================== -->

	<facility id="164925809" x="254130.83330961555" y="9855252.181535013">
		<activity type="home">
		</activity>

		<activity type="work">
		</activity>

	</facility>

<!-- ====================================================================== -->

	<facility id="164925810" x="254025.7620442637" y="9854884.841536473">
		<activity type="home">
		</activity>

		<activity type="work">
		</activity>

	</facility>

<!-- ====================================================================== -->

	<facility id="164925811" x="253800.89269232194" y="9854961.568941042">
		<activity type="home">
		</activity>

		<activity type="work">
		</activity>

	</facility>

<!-- ====================================================================== -->

	<facility id="164925813" x="253639.59969191838" y="9854960.436344365">
		<activity type="home">
		</activity>

		<activity type="work">
		</activity>

	</facility>

<!-- ====================================================================== -->

	<facility id="164925814" x="253746.37247691507" y="9854982.990838524">
		<activity type="home">
		</activity>

		<activity type="work">
		</activity>

	</facility>

<!-- ====================================================================== -->

	<facility id="164925815" x="254268.4879247736" y="9855092.311831279">
		<activity type="home">
		</activity>

		<activity type="work">
		</activity>

	</facility>

<!-- ====================================================================== -->

	<facility id="164925816" x="253791.78149965146" y="9854941.41816592">
		<activity type="home">
		</activity>

		<activity type="work">
		</activity>

	</facility>

<!-- ====================================================================== -->

	<facility id="164925817" x="254165.42843437157" y="9855290.589279996">
		<activity type="home">
		</activity>

		<activity type="work">
		</activity>

	</facility>

<!-- ====================================================================== -->

	<facility id="164925818" x="253824.51570752406" y="9854981.671699734">
		<activity type="home">
		</activity>

		<activity type="work">
		</activity>

	</facility>

<!-- ====================================================================== -->

	<facility id="164925819" x="253671.79280047608" y="9854895.009216271">
		<activity type="home">
		</activity>

		<activity type="work">
		</activity>

	</facility>

<!-- ====================================================================== -->

	<facility id="164925820" x="254123.89978125243" y="9855363.374971082">
		<activity type="home">
		</activity>

		<activity type="work">
		</activity>

	</facility>

<!-- ====================================================================== -->

	<facility id="164925822" x="253783.76281459225" y="9854900.710830305">
		<activity type="home">
		</activity>

		<activity type="work">
		</activity>

	</facility>

<!-- ====================================================================== -->

	<facility id="164925823" x="254280.72314498018" y="9855111.082611771">
		<activity type="home">
		</activity>

		<activity type="work">
		</activity>

	</facility>

<!-- ====================================================================== -->

	<facility id="164925824" x="254143.76562026952" y="9855332.741517294">
		<activity type="home">
		</activity>

		<activity type="work">
		</activity>

	</facility>

<!-- ====================================================================== -->

	<facility id="164925826" x="254181.73250976694" y="9855271.721953241">
		<activity type="home">
		</activity>

		<activity type="work">
		</activity>

	</facility>

<!-- ====================================================================== -->

	<facility id="168408900" x="252478.765387969" y="9855253.132741863" desc="Ayany market area">
		<activity type="shopping">
		</activity>

		<activity type="work">
		</activity>

	</facility>

<!-- ====================================================================== -->

	<facility id="168408907" x="252052.3522434954" y="9855668.079259096" desc="42 market place">
		<activity type="shopping">
		</activity>

		<activity type="work">
		</activity>

	</facility>

<!-- ====================================================================== -->

	<facility id="1691655460" x="252482.3214503451" y="9855555.815613218" desc="Baka Investment Shoe Shop">
		<activity type="shopping">
		</activity>

		<activity type="work">
		</activity>

	</facility>

<!-- ====================================================================== -->

	<facility id="1691655462" x="252483.92651644655" y="9855553.660052808" desc="Blessed Butchery">
		<activity type="shopping">
		</activity>

		<activity type="work">
		</activity>

	</facility>

<!-- ====================================================================== -->

	<facility id="1691655469" x="252586.257659979" y="9855030.2793253" desc="Hardware">
		<activity type="shopping">
		</activity>

		<activity type="work">