<?xml version="1.0" encoding="utf-8"?>
<!DOCTYPE network SYSTEM "http://www.matsim.org/files/dtd/network_v1.dtd">

<network>

<!-- ====================================================================== -->

	<nodes>
		<node id="117085144" x="475396.98524190416" y="5662235.25648921" />
		<node id="122054227" x="481550.2652375784" y="5661805.613247673" />
		<node id="122054290" x="481468.037793709" y="5661590.656006278" />
		<node id="122054325" x="481006.91975187813" y="5661652.319780379" />
		<node id="122055275" x="480232.50523147837" y="5666322.64659846" />
		<node id="124136502" x="475467.1325091787" y="5662155.230398272" />
		<node id="124137935" x="475430.2028295421" y="5662236.944045433" />
		<node id="124138677" x="475474.6336687693" y="5662264.845759105" />
		<node id="124139587" x="475719.5034137024" y="5658877.713236741" />
		<node id="124140259" x="476937.9109229233" y="5659631.533986192" />
		<node id="124141048" x="476373.34091059596" y="5659390.534344838" />
		<node id="13311279" x="471772.08477364347" y="5665244.2916170275" />
		<node id="13311300" x="475101.91811521404" y="5662876.264953198" />
		<node id="13311307" x="475298.04351230006" y="5662380.000027593" />
		<node id="13311310" x="475414.7960981937" y="5662413.204381295" />
		<node id="13311311" x="475436.9896678262" y="5662381.593300834" />
		<node id="13311340" x="475889.93645268737" y="5661578.912971909" />
		<node id="13311355" x="476601.91601449635" y="5661439.958125803" />
		<node id="13311363" x="476894.3285871154" y="5661400.87285413" />
		<node id="13311369" x="477058.53397117584" y="5661401.051255757" />
		<node id="13311382" x="477550.71331676276" y="5661404.277608929" />
		<node id="13311400" x="478186.5220839814" y="5661444.784966882" />
		<node id="13311443" x="481521.9539353126" y="5663267.499181534" />
		<node id="13311453" x="482451.7153825299" y="5663822.874962614" />
		<node id="206932966" x="477524.18967693916" y="5661186.993679881" />
		<node id="206932972" x="477387.61329514533" y="5661204.338865289" />
		<node id="206932975" x="476535.9928967334" y="5660802.037308148" />
		<node id="206932991" x="476168.66864123015" y="5660868.700905589" />
		<node id="206933010" x="476473.8676789016" y="5660585.410117282" />
		<node id="206933027" x="475734.1019058502" y="5661672.247091676" />
		<node id="206933038" x="476544.2794904787" y="5660407.12391575" />
		<node id="206933044" x="476642.4239721476" y="5660295.9157185545" />
		<node id="206933054" x="476738.8659803725" y="5660096.674210422" />
		<node id="206933058" x="476796.88858835696" y="5659981.73572879" />
		<node id="241364910" x="475500.5222975016" y="5663314.649164785" />
		<node id="241364914" x="475536.13440764113" y="5663350.422386608" />
		<node id="245059097" x="487882.75720202154" y="5655091.590178108" />
		<node id="245059780" x="481790.6425703524" y="5660157.68493075" />
		<node id="245059828" x="480080.76873930526" y="5662518.562005369" />
		<node id="249610755" x="477749.5799345681" y="5661243.332131902" />
		<node id="249610795" x="477375.923309953" y="5660166.224527167" />
		<node id="249610796" x="477255.748029126" y="5660311.823211231" />
		<node id="249610829" x="477098.9642123413" y="5660604.447782982" />
		<node id="249610856" x="477539.0740099757" y="5661154.556306328" />
		<node id="259516434" x="476808.8572788285" y="5660833.319653071" />
		<node id="259516439" x="476642.7507972065" y="5660885.836702838" />
		<node id="259516441" x="476573.824976785" y="5660895.791160231" />
		<node id="259516444" x="476671.2633470563" y="5660662.98114218" />
		<node id="259516451" x="476639.2773831123" y="5660873.397195429" />
		<node id="259516453" x="476486.82085349807" y="5660936.644592167" />
		<node id="259516455" x="476523.0429630781" y="5661005.917520841" />
		<node id="261719372" x="476626.9445371894" y="5661004.2109588515" />
		<node id="261719373" x="476668.30559269857" y="5660984.184154479" />
		<node id="261780085" x="477027.3828212521" y="5660858.630662541" />
		<node id="261780109" x="476823.87025976874" y="5660830.260654289" />
		<node id="261780155" x="478032.3911867311" y="5661821.84351879" />
		<node id="262367209" x="475009.20097930374" y="5659931.472215282" />
		<node id="262367213" x="474983.4743701161" y="5659861.580614816" />
		<node id="262374558" x="476421.281947618" y="5660520.3159212135" />
		<node id="262374559" x="476487.59477009217" y="5660564.373754855" />
		<node id="262374585" x="475600.9017897656" y="5660594.42747965" />
		<node id="262374587" x="475591.41170707677" y="5660642.892227432" />
		<node id="262374597" x="475110.7368697291" y="5660739.450121924" />
		<node id="262374618" x="476061.2519996699" y="5660842.341954201" />
		<node id="262374619" x="476148.28362419945" y="5660897.086406968" />
		<node id="262374621" x="476043.29444131226" y="5661065.997270381" />
		<node id="262496445" x="474891.22722176934" y="5660881.870852879" />
		<node id="262496446" x="474897.48188734247" y="5660879.349336131" />
		<node id="262496451" x="475158.70171126217" y="5661023.9774771985" />
		<node id="262496465" x="474919.8088062607" y="5659853.716101182" />
		<node id="262496468" x="474993.2325648706" y="5659815.826939738" />
		<node id="262507062" x="476522.4571727823" y="5660632.818803764" />
		<node id="262507065" x="476711.3750836768" y="5660745.527059484" />
		<node id="262507067" x="476618.4683676244" y="5660785.704293895" />
		<node id="262507069" x="476490.6550036747" y="5660575.146929546" />
		<node id="262507072" x="476569.57917941886" y="5660522.386658909" />
		<node id="262507074" x="477513.51565707073" y="5661632.348472133" />
		<node id="262507076" x="477619.31926248" y="5661802.280132743" />
		<node id="262507081" x="477884.7527288419" y="5661603.774285106" />
		<node id="262507088" x="477690.7516270331" y="5661764.0263958145" />
		<node id="262685984" x="482252.01982112776" y="5657566.668176604" />
		<node id="262685989" x="481527.79306644696" y="5658418.003385833" />
		<node id="262685991" x="481334.03607591265" y="5658599.689302555" />
		<node id="262685992" x="481268.7922590485" y="5658579.11905046" />
		<node id="262685995" x="481075.62367295905" y="5658474.0555340545" />
		<node id="262686003" x="479786.29863780004" y="5658752.103179659" />
		<node id="262686020" x="478705.9623874652" y="5659044.464332768" />
		<node id="262686023" x="477575.80285893334" y="5659774.202113044" />
		<node id="262686025" x="477176.2536965283" y="5660051.38213126" />
		<node id="262686028" x="477319.4856373911" y="5659753.904538945" />
		<node id="262867972" x="475308.9310052147" y="5657167.21454292" />
		<node id="264106907" x="481546.14154958376" y="5659769.252916948" />
		<node id="264106914" x="481361.77741964563" y="5659175.70555957" />
		<node id="264106917" x="481358.57659760234" y="5659067.223994848" />
		<node id="264106918" x="481363.7125974242" y="5659013.403702936" />
		<node id="264106925" x="481364.41390321014" y="5658722.796270176" />
		<node id="264108401" x="476913.8436428281" y="5660205.171324761" />
		<node id="264129717" x="474792.15874540043" y="5657648.3376054" />
		<node id="264129719" x="474908.278082231" y="5657554.57998321" />
		<node id="264129720" x="474884.9563794213" y="5657506.362751012" />
		<node id="264129722" x="474980.5279642387" y="5657361.71833609" />
		<node id="264129724" x="475034.8881512504" y="5657474.753010558" />
		<node id="264130469" x="476161.13911976723" y="5657910.274718463" />
		<node id="264130472" x="476117.94141659915" y="5658192.34012423" />
		<node id="264130474" x="476294.9778721173" y="5658242.623388216" />
		<node id="264130483" x="477043.2130407821" y="5659236.456376196" />
		<node id="264241566" x="474500.18426573183" y="5656792.3750765165" />
		<node id="264286005" x="474059.2434202114" y="5656849.530845511" />
		<node id="264288290" x="475113.87425767694" y="5657840.565881976" />
		<node id="264288298" x="475823.96366433066" y="5658464.409943444" />
		<node id="264288407" x="475641.1890548725" y="5658002.358331424" />
		<node id="264371088" x="474997.7579461549" y="5657678.419808697" />
		<node id="264442458" x="476052.7949543811" y="5661861.39995025" />
		<node id="264442464" x="476371.53396990144" y="5662181.741799848" />
		<node id="264442625" x="476027.6661334517" y="5661625.989767476" />
		<node id="264508388" x="476062.8477335959" y="5658291.992426039" />
		<node id="264508394" x="475980.83821953746" y="5658839.424349037" />
		<node id="264509800" x="475044.3320300608" y="5657562.872435413" />
		<node id="264509915" x="475067.89707310084" y="5657584.955498283" />
		<node id="264510058" x="475062.79699164926" y="5657650.358886911" />
		<node id="264510061" x="475122.501697347" y="5657684.166857644" />
		<node id="264510063" x="475137.3949206947" y="5657655.993007511" />
		<node id="264510099" x="475655.1828752671" y="5658038.568084149" />
		<node id="264771718" x="478280.4034226501" y="5657032.038684592" />
		<node id="264771733" x="478090.3454799949" y="5656633.054117216" />
		<node id="264902461" x="477065.8234866427" y="5659149.892191422" />
		<node id="264902462" x="477133.91033369483" y="5659136.400726847" />
		<node id="264902464" x="477179.2894161682" y="5659066.039151699" />
		<node id="264902471" x="477335.55935575033" y="5659602.580903042" />
		<node id="264903256" x="476908.7108796017" y="5660755.637803577" />
		<node id="264903260" x="476835.8791299255" y="5660574.696337041" />
		<node id="264903264" x="477097.50770810735" y="5660615.486030959" />
		<node id="264905721" x="477289.21346574085" y="5660131.8311835835" />
		<node id="264911522" x="475801.2988804903" y="5656688.827567262" />
		<node id="264959655" x="474900.4522052135" y="5658018.519347496" />
		<node id="264959656" x="474953.0738396188" y="5658081.840881586" />
		<node id="264959657" x="474991.6715116598" y="5658053.295785522" />
		<node id="264959659" x="475057.90643664857" y="5658140.272942288" />
		<node id="264959660" x="475186.3652369628" y="5658067.179744145" />
		<node id="264959661" x="475268.3181663111" y="5658060.680992181" />
		<node id="265071914" x="477933.54637160077" y="5658301.7901449995" />
		<node id="265071919" x="477767.3288009051" y="5658624.803761276" />
		<node id="265071971" x="477724.8361884685" y="5657940.25258091" />
		<node id="265071973" x="477825.44227284304" y="5658192.514655181" />
		<node id="265072454" x="477077.5369424633" y="5656731.066055947" />
		<node id="265072691" x="475050.9849143217" y="5657323.010759425" />
		<node id="265072694" x="474972.5539757532" y="5657342.918495505" />
		<node id="265072705" x="475096.3543289417" y="5657453.504588897" />
		<node id="265520058" x="477176.6527652186" y="5660858.123320972" />
		<node id="265782365" x="475865.736992349" y="5660179.777788439" />
		<node id="265993605" x="476586.8031443615" y="5661358.956374369" />
		<node id="265993609" x="476681.10810099647" y="5661158.166093707" />
		<node id="265993614" x="476307.55828389974" y="5660881.249926321" />
		<node id="265993619" x="475189.7517349466" y="5660679.839992354" />
		<node id="265993627" x="476746.15192354465" y="5661322.103639424" />
		<node id="265993630" x="476729.0637920723" y="5661130.381007923" />
		<node id="265993632" x="476392.3490985719" y="5660672.15766168" />
		<node id="265993635" x="476256.91231697536" y="5660756.708005017" />
		<node id="266014259" x="475018.47867338586" y="5657191.120572943" />
		<node id="266014267" x="475180.9876950497" y="5657340.8888115715" />
		<node id="266014406" x="476860.1728021547" y="5659897.867901638" />
		<node id="266192064" x="475176.59205160127" y="5658007.5084288595" />
		<node id="266552994" x="476751.0388074412" y="5660624.977028419" />
		<node id="266552995" x="476493.24636900885" y="5660484.623312169" />
		<node id="266552996" x="476564.70998933783" y="5660480.272266377" />
		<node id="266736842" x="475289.72832909477" y="5658070.887328891" />
		<node id="266736914" x="476678.8369319955" y="5660075.537934117" />
		<node id="266736919" x="476648.9965858873" y="5660287.489784864" />
		<node id="266737831" x="476957.4524858354" y="5660816.405899456" />
		<node id="266737860" x="476964.9713407716" y="5660703.229801607" />
		<node id="267013476" x="476650.18309641513" y="5660571.119084993" />
		<node id="267013480" x="476663.6722092325" y="5660562.317100109" />
		<node id="272178913" x="474834.2442024755" y="5658064.336773335" />
		<node id="272443953" x="475395.7457818788" y="5658137.616613364" />
		<node id="272750639" x="476375.34821684664" y="5659426.600812893" />
		<node id="272750647" x="476539.8729309636" y="5659524.679755856" />
		<node id="272750652" x="476726.4002128935" y="5659777.009240165" />
		<node id="272802700" x="476658.22134133923" y="5660488.9893131275" />
		<node id="273463230" x="476644.8716846881" y="5659695.240077781" />
		<node id="273463231" x="476661.4167850305" y="5659675.614922736" />
		<node id="273463236" x="476536.7236882978" y="5659492.911025418" />
		<node id="274082632" x="476653.2173665609" y="5660454.070578634" />
		<node id="274082637" x="476594.6790756967" y="5660590.798717578" />
		<node id="274608313" x="473760.6595335544" y="5662114.9949042145" />
		<node id="274609747" x="473941.94470196683" y="5661158.129745306" />
		<node id="274618676" x="474957.21585740126" y="5658483.390658803" />
		<node id="274618677" x="474983.27557901916" y="5658379.2741763815" />
		<node id="274618680" x="474890.7082172751" y="5658131.108609114" />
		<node id="274622451" x="475247.12139826745" y="5659391.346009678" />
		<node id="274622505" x="475254.9995290872" y="5659392.475884536" />
		<node id="274807050" x="475003.2133031998" y="5659818.836760316" />
		<node id="274807388" x="476647.5436294465" y="5659451.628319285" />
		<node id="274807392" x="476809.84450651065" y="5659181.073806857" />
		<node id="274807395" x="476984.0382366389" y="5659177.958206326" />
		<node id="275347054" x="478192.157958199" y="5662154.476104238" />
		<node id="275347057" x="478167.4828615229" y="5662429.029738528" />
		<node id="275347065" x="478683.51137958636" y="5663009.674484428" />
		<node id="275347067" x="478587.2277997222" y="5663133.7255670605" />
		<node id="275347073" x="478391.1772427766" y="5663350.609662777" />
		<node id="275347170" x="477514.87197445147" y="5663226.349061665" />
		<node id="275347171" x="477712.80770957796" y="5663295.594260786" />
		<node id="275347409" x="477188.87839533336" y="5663137.014496411" />
		<node id="275347999" x="478019.1245638281" y="5663142.6907395" />
		<node id="276841318" x="474844.5421958651" y="5657908.963240314" />
		<node id="276841568" x="475403.7198536341" y="5658145.251896831" />
		<node id="277893054" x="477807.3814605375" y="5658679.4674691865" />
		<node id="277893055" x="477740.984505973" y="5658651.295664093" />
		<node id="277895169" x="477915.5453257864" y="5658742.791608352" />
		<node id="278194090" x="474484.98230066686" y="5661170.515167496" />
		<node id="278194096" x="474781.7594911314" y="5661104.587441758" />
		<node id="278194097" x="475797.66488701495" y="5660907.328083591" />
		<node id="278194101" x="477088.8003029276" y="5659068.364180519" />
		<node id="278194102" x="477094.75415828876" y="5659041.536809821" />
		<node id="278194103" x="477197.01963994093" y="5658804.946475275" />
		<node id="278194104" x="477460.3345373036" y="5658374.963775666" />
		<node id="278194105" x="477763.67977982113" y="5657875.607298033" />
		<node id="278194106" x="478163.215747943" y="5657218.281655575" />
		<node id="278194109" x="478378.5826160044" y="5656886.335034098" />
		<node id="278194110" x="478396.788050912" y="5656857.834400676" />
		<node id="278194111" x="479242.27760173334" y="5655150.617462414" />
		<node id="278966731" x="474943.25777125126" y="5657989.364027403" />
		<node id="278967127" x="474901.61956244905" y="5657947.396570661" />
		<node id="279289346" x="474974.8975691973" y="5658232.087344107" />
		<node id="279290215" x="475166.4275883029" y="5658328.01239156" />
		<node id="279290217" x="474992.39591060876" y="5658335.725626841" />
		<node id="279290355" x="475181.05121832766" y="5658327.152450734" />
		<node id="280073652" x="475081.0664478595" y="5658260.365064192" />
		<node id="280073661" x="475096.80707775574" y="5658292.038766012" />
		<node id="280073670" x="474999.74168408365" y="5658301.827376401" />
		<node id="280309124" x="477492.0403798492" y="5660053.60827545" />
		<node id="280309138" x="477347.62637953705" y="5659956.389373238" />
		<node id="281812366" x="478793.1872836196" y="5662946.311690115" />
		<node id="281812422" x="479822.6137944756" y="5660991.556907066" />
		<node id="283408039" x="475699.08228096284" y="5658251.211800113" />
		<node id="283408041" x="475755.04767325346" y="5658305.65135244" />
		<node id="283408455" x="475763.43739576906" y="5658303.510116526" />
		<node id="283408476" x="475683.38609250606" y="5658283.202238198" />
		<node id="283410786" x="475740.13666974806" y="5658240.954339607" />
		<node id="283410788" x="475811.4184701575" y="5658146.460499393" />
		<node id="283412269" x="475100.7118566943" y="5657782.990643876" />
		<node id="283415522" x="474989.2927030504" y="5657669.464161577" />
		<node id="283415529" x="474909.42640965886" y="5657697.086534234" />
		<node id="285177405" x="475991.49815917655" y="5657853.022235179" />
		<node id="285177411" x="476039.48894397996" y="5658053.227814667" />
		<node id="285184066" x="475089.82933302573" y="5657771.043901266" />
		<node id="286061905" x="478007.97574496886" y="5661789.85316597" />
		<node id="286061907" x="477929.6944377503" y="5661751.23182484" />
		<node id="286487963" x="474787.5430144691" y="5657257.121840359" />
		<node id="286488318" x="474841.5601975055" y="5657357.634242144" />
		<node id="286488319" x="474843.2995270255" y="5657345.025982293" />
		<node id="286488323" x="474817.79192493507" y="5657422.116925015" />
		<node id="288885587" x="476069.030632359" y="5658277.729221704" />
		<node id="288890284" x="474887.57500192005" y="5657503.091634792" />
		<node id="288890285" x="474895.6645181996" y="5657489.451627911" />
		<node id="288896198" x="474650.73437737057" y="5658188.063671926" />
		<node id="289471808" x="474574.9546326012" y="5657062.239792688" />
		<node id="289473086" x="475614.45591217425" y="5657934.592594898" />
		<node id="289473087" x="475607.5851895319" y="5657917.298985819" />
		<node id="291616621" x="475806.5009249331" y="5658874.068337119" />
		<node id="291616904" x="475797.52699977584" y="5658766.428366847" />
		<node id="29542040" x="475431.0765850133" y="5661721.2797489" />
		<node id="29542044" x="475254.0928129324" y="5661243.421030032" />
		<node id="29542050" x="474929.7564468166" y="5659956.5237077465" />
		<node id="29542051" x="475030.3111943083" y="5659738.024339337" />
		<node id="29542052" x="475220.4476398181" y="5659427.416372998" />
		<node id="29542058" x="475900.07909878914" y="5658647.645910151" />
		<node id="29542059" x="475757.28775231325" y="5658287.391715471" />
		<node id="29542062" x="474208.8254493456" y="5654447.7095435625" />
		<node id="296055966" x="479049.37757067056" y="5661931.051416266" />
		<node id="303990384" x="475137.17259128974" y="5658092.605011126" />
		<node id="303990387" x="474953.2494712284" y="5658002.560310384" />
		<node id="304000256" x="479029.204030437" y="5663204.270116602" />
		<node id="304258734" x="479048.7317777491" y="5664026.804855956" />
		<node id="30521269" x="472408.9887341315" y="5658861.685354174" />
		<node id="30521287" x="474915.3027742161" y="5659707.733487797" />
		<node id="30521288" x="475121.97335317923" y="5659814.436914487" />
		<node id="30521291" x="476231.82550279435" y="5660362.325877124" />
		<node id="30521296" x="476353.3113239584" y="5660499.809173681" />
		<node id="30521303" x="476489.13348549634" y="5660505.615803455" />
		<node id="30521305" x="476498.3736197341" y="5660592.437871447" />
		<node id="30521308" x="476592.8216162618" y="5660678.316350398" />
		<node id="30521311" x="476615.0954545284" y="5660769.20527263" />
		<node id="30521312" x="476672.277858039" y="5660997.032893005" />
		<node id="30521314" x="476708.4688831737" y="5661098.813226143" />
		<node id="30521319" x="476860.5115609918" y="5661307.276552861" />
		<node id="30521744" x="475260.8435910953" y="5661237.828232296" />
		<node id="30521768" x="475038.2496481256" y="5659744.480433166" />
		<node id="30521770" x="475223.4816122147" y="5659436.409607736" />
		<node id="305387799" x="478014.07487262273" y="5657915.147064796" />
		<node id="305389577" x="477773.3158565063" y="5658619.373302695" />
		<node id="305389681" x="477726.21336374857" y="5658423.151570976" />
		<node id="305390354" x="480851.46402550593" y="5657610.652847213" />
		<node id="305390623" x="480284.01565800555" y="5656343.85852972" />
		<node id="305390638" x="480857.9106774394" y="5657253.801127326" />
		<node id="305390641" x="480932.81069424335" y="5657447.823555272" />
		<node id="305390646" x="480926.62807036756" y="5657924.788328242" />
		<node id="305390648" x="480944.9116875649" y="5658037.995645202" />
		<node id="305390652" x="481168.5231630821" y="5658418.835196819" />
		<node id="305390653" x="481179.693726311" y="5658458.317216903" />
		<node id="305391623" x="480554.0663179392" y="5656816.873092353" />
		<node id="305391685" x="480949.3902259822" y="5657611.480315548" />
		<node id="305391746" x="481184.98091979354" y="5658492.382718939" />
		<node id="305391752" x="480253.5735119281" y="5657481.793639767" />
		<node id="305574968" x="481610.45305202494" y="5659556.462819493" />
		<node id="306617688" x="474846.89324165153" y="5660815.195459138" />
		<node id="309938106" x="476645.2437835766" y="5660292.299823538" />
		<node id="309938119" x="476641.17329265375" y="5660285.72366079" />
		<node id="309938324" x="476592.2400604345" y="5660121.414159538" />
		<node id="309938337" x="476294.0634526337" y="5659567.895779379" />
		<node id="310443452" x="475709.0557491411" y="5658863.605727389" />
		<node id="310587337" x="477227.9689147767" y="5657036.752646236" />
		<node id="310587338" x="477235.2498663489" y="5657051.121808582" />
		<node id="310589852" x="477590.9251709068" y="5658194.428675085" />
		<node id="310612630" x="474929.5470476222" y="5659984.037507251" />
		<node id="310798366" x="478772.2320544333" y="5662954.972100616" />
		<node id="310798368" x="478758.80467671895" y="5662961.099381582" />
		<node id="312833905" x="481720.25478949916" y="5660043.079712631" />
		<node id="314920861" x="480864.6689443503" y="5657515.533541587" />
		<node id="314920862" x="480860.48411170614" y="5657569.817766539" />
		<node id="314920863" x="480852.43091392325" y="5657591.766416888" />
		<node id="314920870" x="480920.50916887034" y="5657878.615803668" />
		<node id="314920871" x="480923.45751668443" y="5657893.439838628" />
		<node id="314920874" x="481284.19949495624" y="5658581.821052295" />
		<node id="314920884" x="481333.5634380323" y="5658734.295357014" />
		<node id="314920885" x="481395.873428253" y="5658860.7122388845" />
		<node id="314920886" x="481406.9696755465" y="5658876.430195469" />
		<node id="314920887" x="481181.5196175306" y="5658474.9136841325" />
		<node id="314920889" x="480863.9353023616" y="5657612.4526117025" />
		<node id="314920890" x="480855.7266139497" y="5657611.35987349" />
		<node id="314920893" x="480875.16440286324" y="5657263.923661023" />
		<node id="315077592" x="481141.86043108965" y="5658380.4773892155" />
		<node id="315077646" x="481023.6670214342" y="5658482.219890399" />
		<node id="315077720" x="481092.26961738867" y="5658407.493019285" />
		<node id="315077752" x="481611.0539768262" y="5659000.105340967" />
		<node id="315077756" x="481769.1249970273" y="5658830.977444762" />
		<node id="315077774" x="481547.4014156283" y="5659048.629653959" />
		<node id="315077827" x="482148.0607212929" y="5659217.918351775" />
		<node id="315077836" x="480873.2334257486" y="5657457.56328172" />
		<node id="315077840" x="480868.73125224345" y="5657458.414017436" />
		<node id="315077847" x="481984.67067503714" y="5659913.59424777" />
		<node id="315077850" x="480926.7663145415" y="5657376.440304091" />
		<node id="315077853" x="480868.8957315467" y="5657387.4860021" />
		<node id="315077856" x="480877.6161582798" y="5657456.624027435" />
		<node id="315077899" x="481200.1644875768" y="5658506.673002811" />
		<node id="315077903" x="481229.8843783381" y="5658769.445844345" />
		<node id="315077929" x="481437.98816826195" y="5659485.975156182" />
		<node id="315077943" x="481300.057434103" y="5659253.729092592" />
		<node id="315077978" x="481241.8234555387" y="5659207.411711596" />
		<node id="315078012" x="480841.6104403025" y="5657221.189194865" />
		<node id="315078030" x="481332.25834616594" y="5659211.765403107" />
		<node id="315078039" x="481604.21622218733" y="5660232.810694876" />
		<node id="315078042" x="481581.1615850376" y="5659554.143045505" />
		<node id="315078049" x="480784.6001527911" y="5657262.347304958" />
		<node id="319245722" x="476571.76233834156" y="5660295.480101057" />
		<node id="319245798" x="476360.72715801414" y="5660284.455168212" />
		<node id="319245800" x="476521.05924583366" y="5660248.947996729" />
		<node id="321436904" x="476666.75596333505" y="5660643.3511727555" />
		<node id="321436907" x="476643.788611058" y="5660294.163579631" />
		<node id="321437000" x="476739.867015318" y="5660571.58109938" />
		<node id="321437006" x="476712.0866774557" y="5660298.458636766" />
		<node id="321437805" x="476484.5677923375" y="5661311.491290616" />
		<node id="321439652" x="476989.3679561903" y="5661282.111690664" />
		<node id="321439906" x="476840.07272996224" y="5661165.189449537" />
		<node id="321439907" x="476940.81356626964" y="5661144.753798648" />
		<node id="321439908" x="476912.06155362196" y="5661072.241727196" />
		<node id="321439913" x="476825.0424639878" y="5661090.992587781" />
		<node id="321439936" x="476865.0223304159" y="5661295.190280506" />
		<node id="321453829" x="477119.6106969432" y="5661256.677007622" />
		<node id="321454191" x="477147.93859708053" y="5661401.810646167" />
		<node id="321454199" x="477422.35948858125" y="5661400.212026383" />
		<node id="321454714" x="476237.9791343149" y="5659807.227589992" />
		<node id="321455288" x="476844.79177379457" y="5658961.5272101015" />
		<node id="321456008" x="476724.92136610235" y="5659340.682889499" />
		<node id="321456030" x="476609.85472301394" y="5659261.679111111" />
		<node id="321456057" x="476712.6455065788" y="5659142.678166679" />
		<node id="321456067" x="476691.7590669228" y="5659125.846765576" />
		<node id="321456070" x="476865.18585950223" y="5659187.14185465" />
		<node id="321456083" x="476827.58620711777" y="5658976.695291296" />
		<node id="323391263" x="481524.5778287712" y="5658856.212864449" />
		<node id="323391297" x="481402.78271177434" y="5658871.129617046" />
		<node id="323391378" x="480998.74329976714" y="5658446.425288102" />
		<node id="323391404" x="480919.1549661961" y="5658279.6979924515" />
		<node id="323391408" x="480895.0180308189" y="5658235.482651863" />
		<node id="323391413" x="480846.0966579326" y="5658163.568875807" />
		<node id="323391422" x="480815.8439771749" y="5658087.727252809" />
		<node id="323391428" x="480911.61471379857" y="5658051.8638362" />
		<node id="323391440" x="480929.2179450178" y="5658045.459975685" />
		<node id="323391472" x="480919.71672691597" y="5658431.592869551" />
		<node id="323391869" x="481076.88860562997" y="5658352.902547527" />
		<node id="323396328" x="480598.96011389984" y="5656897.862502679" />
		<node id="323396333" x="480608.90605453186" y="5656881.689096312" />
		<node id="323396338" x="480617.88681136566" y="5656862.260990085" />
		<node id="323396370" x="480720.5541825199" y="5656764.671105301" />
		<node id="323396478" x="481353.2324874379" y="5657014.340050486" />
		<node id="323396501" x="480906.11090771965" y="5657323.615833997" />
		<node id="323396576" x="481757.8982168208" y="5657379.0737128295" />
		<node id="335886963" x="476657.7018102033" y="5659605.326455593" />
		<node id="335887012" x="476833.0442809881" y="5659881.375329569" />
		<node id="335887775" x="476493.1210807496" y="5659655.238783922" />
		<node id="335887786" x="476479.5817590993" y="5659610.495067789" />
		<node id="335887787" x="476559.82909326616" y="5659585.174775076" />
		<node id="335889008" x="477233.4219767374" y="5661234.454227463" />
		<node id="335889013" x="477271.6003113513" y="5661418.256364638" />
		<node id="335889737" x="477511.82841270533" y="5661383.640196035" />
		<node id="335892305" x="477464.10698795924" y="5661776.0220488375" />
		<node id="335892307" x="477507.13506344677" y="5661662.2355433125" />
		<node id="335892993" x="477789.3485878766" y="5662055.453632299" />
		<node id="335939034" x="476829.14048696536" y="5659703.049658602" />
		<node id="335942866" x="476544.4075143519" y="5659733.22852865" />
		<node id="335945734" x="477196.7444719755" y="5661874.682739304" />
		<node id="335945735" x="477267.95709003793" y="5661854.195058974" />
		<node id="335945737" x="477351.5821107004" y="5661828.782909205" />
		<node id="335945740" x="477406.5755887806" y="5661811.637962894" />
		<node id="336013140" x="477333.9631388018" y="5662044.147222589" />
		<node id="336013148" x="477214.38877530367" y="5662069.952062466" />
		<node id="336013155" x="477149.55821847776" y="5661677.097856267" />
		<node id="336013210" x="477429.5151712804" y="5662012.522960493" />
		<node id="336013212" x="477477.067488586" y="5661968.65479376" />
		<node id="336023518" x="477216.0841651362" y="5661666.449896793" />
		<node id="336023912" x="477533.90137551475" y="5661508.329889513" />
		<node id="336024669" x="477330.21061387943" y="5661662.1433251" />
		<node id="336025725" x="477378.94025398704" y="5661696.136659658" />
		<node id="336025799" x="477195.8052675971" y="5661572.235544219" />
		<node id="336025837" x="477373.55842045415" y="5661545.0848015575" />