<?xml version="1.0" encoding="utf-8"?>
<!DOCTYPE plans SYSTEM "http://www.matsim.org/files/dtd/plans_v4.dtd">

<plans>

<!-- ====================================================================== -->

	<person id="car_P_B_0" employed="no">
		<plan selected="yes">
			<act type="home" x="13.049361094994026" y="52.46623085569716" end_time="09:00:00" />
			<leg mode="car">
			</leg>
			<act type="work" x="13.656837976107855" y="52.378769570656054" end_time="17:00:00" />
			<leg mode="car">
			</leg>
			<act type="home" x="13.049361094994026" y="52.46623085569716" end_time="09:00:00" />
		</plan>

	</person>

<!-- ====================================================================== -->

	<person id="car_P_B_1" employed="no">
		<plan selected="yes">
			<act type="home" x="12.98352644648637" y="52.47265791629495" end_time="09:00:00" />
			<leg mode="car">
			</leg>
			<act type="work" x="13.281254488922336" y="52.46377271591578" end_time="17:00:00" />
			<leg mode="car">
			</leg>
			<act type="home" x="12.98352644648637" y="52.47265791629495" end_time="09:00:00" />
		</plan>

	</person>

<!-- ====================================================================== -->

	<person id="car_P_B_10" employed="no">
		<plan selected="yes">
			<act type="home" x="13.034199111659621" y="52.383552996171325" end_time="09:00:00" />
			<leg mode="car">
			</leg>
			<act type="work" x="13.174500249519916" y="52.51990594086623" end_time="17:00:00" />
			<leg mode="car">
			</leg>
			<act type="home" x="13.034199111659621" y="52.383552996171325" end_time="09:00:00" />
		</plan>

	</person>

<!-- ====================================================================== -->

	<person id="car_P_B_11" employed="no">
		<plan selected="yes">
			<act type="home" x="12.978707211871432" y="52.50498936742126" end_time="09:00:00" />
			<leg mode="car">
			</leg>
			<act type="work" x="13.444568344013067" y="52.51640386144418" end_time="17:00:00" />
			<leg mode="car">
			</leg>
			<act type="home" x="12.978707211871432" y="52.50498936742126" end_time="09:00:00" />
		</plan>

	</person>

<!-- ====================================================================== -->

	<person id="car_P_B_12" employed="no">
		<plan selected="yes">
			<act type="home" x="13.050811431801552" y="52.41706250199866" end_time="09:00:00" />
			<leg mode="car">
			</leg>
			<act type="work" x="13.269668860296997" y="52.46259228765419" end_time="17:00:00" />
			<leg mode="car">
			</leg>
			<act type="home" x="13.050811431801552" y="52.41706250199866" end_time="09:00:00" />
		</plan>

	</person>

<!-- ====================================================================== -->

	<person id="car_P_B_13" employed="no">
		<plan selected="yes">
			<act type="home" x="12.983673093161018" y="52.443860606831436" end_time="09:00:00" />
			<leg mode="car">
			</leg>
			<act type="work" x="13.33942856245686" y="52.420235976618024" end_time="17:00:00" />
			<leg mode="car">
			</leg>
			<act type="home" x="12.983673093161018" y="52.443860606831436" end_time="09:00:00" />
		</plan>

	</person>

<!-- ====================================================================== -->

	<person id="car_P_B_14" employed="no">
		<plan selected="yes">
			<act type="home" x="12.993910919974306" y="52.501856246857635" end_time="09:00:00" />
			<leg mode="car">
			</leg>
			<act type="work" x="13.338186007546959" y="52.4878546298127" end_time="17:00:00" />
			<leg mode="car">
			</leg>
			<act type="home" x="12.993910919974306" y="52.501856246857635" end_time="09:00:00" />
		</plan>

	</person>

<!-- ====================================================================== -->

	<person id="car_P_B_15" employed="no">
		<plan selected="yes">
			<act type="home" x="13.037908589875297" y="52.36628408456894" end_time="09:00:00" />
			<leg mode="car">
			</leg>
			<act type="work" x="13.164505760295599" y="52.439659651530036" end_time="17:00:00" />
			<leg mode="car">
			</leg>
			<act type="home" x="13.037908589875297" y="52.36628408456894" end_time="09:00:00" />
		</plan>

	</person>

<!-- ====================================================================== -->

	<person id="car_P_B_16" employed="no">
		<plan selected="yes">
			<act type="home" x="13.012811552848168" y="52.413086944437445" end_time="09:00:00" />
			<leg mode="car">
			</leg>
			<act type="work" x="13.35948768247994" y="52.59560655669615" end_time="17:00:00" />
			<leg mode="car">
			</leg>
			<act type="home" x="13.012811552848168" y="52.413086944437445" end_time="09:00:00" />
		</plan>

	</person>

<!-- ====================================================================== -->

	<person id="car_P_B_17" employed="no">
		<plan selected="yes">
			<act type="home" x="13.007155085048323" y="52.48613344758664" end_time="09:00:00" />
			<leg mode="car">
			</leg>
			<act type="work" x="13.240739407158236" y="52.49304788096232" end_time="17:00:00" />
			<leg mode="car">
			</leg>
			<act type="home" x="13.007155085048323" y="52.48613344758664" end_time="09:00:00" />
		</plan>

	</person>

<!-- ====================================================================== -->

	<person id="car_P_B_18" employed="no">
		<plan selected="yes">
			<act type="home" x="13.026649137948136" y="52.47430366318956" end_time="09:00:00" />
			<leg mode="car">
			</leg>
			<act type="work" x="13.498318691760435" y="52.639205629369634" end_time="17:00:00" />
			<leg mode="car">
			</leg>
			<act type="home" x="13.026649137948136" y="52.47430366318956" end_time="09:00:00" />
		</plan>

	</person>

<!-- ====================================================================== -->

	<person id="car_P_B_19" employed="no">
		<plan selected="yes">
			<act type="home" x="13.046803491737432" y="52.46325884063432" end_time="09:00:00" />
			<leg mode="car">
			</leg>
			<act type="work" x="13.251741239062476" y="52.56944647363136" end_time="17:00:00" />
			<leg mode="car">
			</leg>
			<act type="home" x="13.046803491737432" y="52.46325884063432" end_time="09:00:00" />
		</plan>

	</person>

<!-- ====================================================================== -->

	<person id="car_P_B_2" employed="no">
		<plan selected="yes">
			<act type="home" x="12.995880056806996" y="52.45628930745781" end_time="09:00:00" />
			<leg mode="car">
			</leg>
			<act type="work" x="13.57195900800603" y="52.57007576468974" end_time="17:00:00" />
			<leg mode="car">
			</leg>
			<act type="home" x="12.995880056806996" y="52.45628930745781" end_time="09:00:00" />
		</plan>

	</person>

<!-- ====================================================================== -->

	<person id="car_P_B_3" employed="no">
		<plan selected="yes">
			<act type="home" x="12.997082230134746" y="52.478978829827696" end_time="09:00:00" />
			<leg mode="car">
			</leg>
			<act type="work" x="13.40770922851386" y="52.63428607160797" end_time="17:00:00" />
			<leg mode="car">
			</leg>
			<act type="home" x="12.997082230134746" y="52.478978829827696" end_time="09:00:00" />
		</plan>

	</person>

<!-- ====================================================================== -->

	<person id="car_P_B_4" employed="no">
		<plan selected="yes">
			<act type="home" x="13.035553648196903" y="52.46073854409115" end_time="09:00:00" />
			<leg mode="car">
			</leg>
			<act type="work" x="13.245209604630498" y="52.53384182566715" end_time="17:00:00" />
			<leg mode="car">
			</leg>
			<act type="home" x="13.035553648196903" y="52.46073854409115" end_time="09:00:00" />
		</plan>

	</person>

<!-- ====================================================================== -->

	<person id="car_P_B_5" employed="no">
		<plan selected="yes">
			<act type="home" x="13.055935817403718" y="52.38023917987752" end_time="09:00:00" />
			<leg mode="car">
			</leg>
			<act type="work" x="13.143550911745967" y="52.4899659050037" end_time="17:00:00" />
			<leg mode="car">
			</leg>
			<act type="home" x="13.055935817403718" y="52.38023917987752" end_time="09:00:00" />
		</plan>

	</person>

<!-- ====================================================================== -->

	<person id="car_P_B_6" employed="no">
		<plan selected="yes">
			<act type="home" x="13.094440463557971" y="52.4441083835216" end_time="09:00:00" />
			<leg mode="car">
			</leg>
			<act type="work" x="13.40614406207619" y="52.43069219653882" end_time="17:00:00" />
			<leg mode="car">
			</leg>
			<act type="home" x="13.094440463557971" y="52.4441083835216" end_time="09:00:00" />
		</plan>

	</person>

<!-- ====================================================================== -->

	<person id="car_P_B_7" employed="no">
		<plan selected="yes">
			<act type="home" x="13.02393763888396" y="52.40987564221329" end_time="09:00:00" />
			<leg mode="car">
			</leg>
			<act type="work" x="13.226410206220779" y="52.53470206628264" end_time="17:00:00" />
			<leg mode="car">
			</leg>
			<act type="home" x="13.02393763888396" y="52.40987564221329" end_time="09:00:00" />
		</plan>

	</person>

<!-- ====================================================================== -->

	<person id="car_P_B_8" employed="no">
		<plan selected="yes">
			<act type="home" x="13.024114868587507" y="52.376810785657455" end_time="09:00:00" />
			<leg mode="car">
			</leg>
			<act type="work" x="13.61166472098958" y="52.417450806681366" end_time="17:00:00" />
			<leg mode="car">
			</leg>
			<act type="home" x="13.024114868587507" y="52.376810785657455" end_time="09:00:00" />
		</plan>

	</person>

<!-- ====================================================================== -->

	<person id="car_P_B_9" employed="no">
		<plan selected="yes">
			<act type="home" x="13.088661862746042" y="52.43728844743585" end_time="09:00:00" />
			<leg mode="car">
			</leg>
			<act type="work" x="13.279192170883492" y="52.50833918956487" end_time="17:00:00" />
			<leg mode="car">
			</leg>
			<act type="home" x="13.088661862746042" y="52.43728844743585" end_time="09:00:00" />
		</plan>

	</person>

<!-- ====================================================================== -->

</plans>
