<?xml version="1.0" encoding="UTF-8"?>
<!DOCTYPE facilities SYSTEM "http://www.matsim.org/files/dtd/facilities_v1.dtd">
<facilities name="Land Use">

<!-- ====================================================================== -->

	<facility id="1000819329" x="263799.0263539521" y="9858883.210392382">
		<activity type="other">
		</activity>

		<activity type="work">
		</activity>

	</facility>

<!-- ====================================================================== -->

	<facility id="100138858" x="256844.3348251685" y="9858493.41142145" desc="KeMU towers">
		<activity type="work">
		</activity>

	</facility>

<!-- ====================================================================== -->

	<facility id="100138862" x="256857.84032589998" y="9858459.16656239" desc="Hazina Towers">
		<activity type="work">
		</activity>

	</facility>

<!-- ====================================================================== -->

	<facility id="100138866" x="257141.01164659864" y="9858516.17332371" desc="Nakumatt Lifestyle">
		<activity type="work">
		</activity>

	</facility>

<!-- ====================================================================== -->

	<facility id="100138869" x="257020.32818346246" y="9858552.832332246" desc="Kenya House">
		<activity type="work">
		</activity>

	</facility>

<!-- ====================================================================== -->

	<facility id="100138873" x="257096.98959745528" y="9858525.969222387" desc="Rattanasi Trust Building">
		<activity type="work">
		</activity>

	</facility>

<!-- ====================================================================== -->

	<facility id="100138880" x="256970.5532882147" y="9858533.07351051" desc="Uchumi">
		<activity type="work">
		</activity>

	</facility>

<!-- ====================================================================== -->

	<facility id="100138888" x="257083.5765493424" y="9858438.530655187">
		<activity type="work">
		</activity>

	</facility>

<!-- ====================================================================== -->

	<facility id="100138893" x="256911.38854597078" y="9858362.150668973">
		<activity type="work">
		</activity>

	</facility>

<!-- ====================================================================== -->

	<facility id="1002255495" x="256897.35612239462" y="9856486.390307505" desc="Gazebo">
		<activity type="leisure">
		</activity>

		<activity type="work">
		</activity>

	</facility>

<!-- ====================================================================== -->

	<facility id="100673883" x="250496.70858651938" y="9850544.196583994" desc="Catholic University of East Africa">
		<activity type="education">
		</activity>

		<activity type="work">
		</activity>

	</facility>

<!-- ====================================================================== -->

	<facility id="100763419" x="257059.95622677912" y="9858571.708675193" desc="Kenya Methodist University (KeMU HuB)">
		<activity type="education">
		</activity>

		<activity type="work">
		</activity>

	</facility>

<!-- ====================================================================== -->

	<facility id="100763944" x="256888.9115701211" y="9858512.137180373" desc="Ambank House">
		<activity type="work">
		</activity>

	</facility>

<!-- ====================================================================== -->

	<facility id="100763945" x="256938.12283290454" y="9858461.657326601" desc="Maendeleo house">
		<activity type="work">
		</activity>

	</facility>

<!-- ====================================================================== -->

	<facility id="100763946" x="256921.0874157079" y="9858536.095347213" desc="Anniversary Towers">
		<activity type="work">
		</activity>

	</facility>

<!-- ====================================================================== -->

	<facility id="100837116" x="257002.34079349562" y="9858588.207127014" desc="College House">
		<activity type="work">
		</activity>

	</facility>

<!-- ====================================================================== -->

	<facility id="100841053" x="257112.0311153415" y="9858492.02988863" desc="ABC Bank">
		<activity type="work">
		</activity>

	</facility>

<!-- ====================================================================== -->

	<facility id="100841056" x="257120.0776169903" y="9858475.395270085" desc="Habib Bank">
		<activity type="work">
		</activity>

	</facility>

<!-- ====================================================================== -->

	<facility id="100841060" x="257128.05165200328" y="9858458.88226362" desc="Nyingo Towers">
		<activity type="work">
		</activity>

	</facility>

<!-- ====================================================================== -->

	<facility id="100846572" x="257275.499998776" y="9858158.748169959" desc="Rehani House">
		<activity type="work">
		</activity>

	</facility>

<!-- ====================================================================== -->

	<facility id="100846573" x="257233.43310298995" y="9858232.384899313" desc="National House">
		<activity type="work">
		</activity>

	</facility>

<!-- ====================================================================== -->

	<facility id="100846574" x="257180.93477676052" y="9858345.202331029" desc="Jamii Bora House">
		<activity type="work">
		</activity>

	</facility>

<!-- ====================================================================== -->

	<facility id="100846575" x="257042.24870837535" y="9858461.325650347" desc="Marshalls">
		<activity type="work">
		</activity>

	</facility>

<!-- ====================================================================== -->

	<facility id="100846578" x="257032.85844113442" y="9858493.682528814" desc="Baroda House">
		<activity type="work">
		</activity>

	</facility>

<!-- ====================================================================== -->

	<facility id="101074658" x="248268.3146559583" y="9863342.373771977">
		<activity type="leisure">
		</activity>

		<activity type="work">
		</activity>

	</facility>

<!-- ====================================================================== -->

	<facility id="101461322" x="257233.10623739022" y="9858139.11173813" desc="Emperor Plaza">
		<activity type="work">
		</activity>

	</facility>

<!-- ====================================================================== -->

	<facility id="101461323" x="257198.6348405122" y="9858209.30387773" desc="Chester House">
		<activity type="work">
		</activity>

	</facility>

<!-- ====================================================================== -->

	<facility id="101461745" x="257155.9792308696" y="9858261.752558388" desc="Cianda House">
		<activity type="work">
		</activity>

	</facility>

<!-- ====================================================================== -->

	<facility id="101461746" x="257143.98086585698" y="9858304.167278808" desc="Mercantile House">
		<activity type="work">
		</activity>

	</facility>

<!-- ====================================================================== -->

	<facility id="101461747" x="257119.74022375984" y="9858368.218203247" desc="Consolidated Bank">
		<activity type="work">
		</activity>

	</facility>

<!-- ====================================================================== -->

	<facility id="101462003" x="257065.47543622786" y="9858202.255049188" desc="Barclays Plaza">
		<activity type="work">
		</activity>

	</facility>

<!-- ====================================================================== -->

	<facility id="101462498" x="256876.86417801311" y="9858416.022190237" desc="Viewpark Towers">
		<activity type="work">
		</activity>

	</facility>

<!-- ====================================================================== -->

	<facility id="1015581298" x="252492.18373753637" y="9854892.337066684" desc="Victorius Youth Group">
		<activity type="leisure">
		</activity>

		<activity type="work">
		</activity>

	</facility>

<!-- ====================================================================== -->

	<facility id="1015583776" x="252714.31622272584" y="9854459.313730802" desc="Egesa mali/serial rahisi store">
		<activity type="shopping">
		</activity>

		<activity type="work">
		</activity>

	</facility>

<!-- ====================================================================== -->

	<facility id="1015625611" x="252778.32558642275" y="9854828.247005764" desc="Christ Life Liberation">
		<activity type="other">
		</activity>

		<activity type="work">
		</activity>

	</facility>

<!-- ====================================================================== -->

	<facility id="1015625631" x="252585.12833356223" y="9855048.330582235" desc="Inua Mimi Rescue Centre">
		<activity type="education">
		</activity>

		<activity type="work">
		</activity>

	</facility>

<!-- ====================================================================== -->

	<facility id="1015636343" x="252088.91164140424" y="9855355.99576375" desc="Killer Advanced Institute">
		<activity type="education">
		</activity>

		<activity type="work">
		</activity>

	</facility>

<!-- ====================================================================== -->

	<facility id="1015636347" x="252204.8607201829" y="9855332.869588159" desc="Kibera Christian Hope Centre and Computer College">
		<activity type="education">
		</activity>

		<activity type="work">
		</activity>

	</facility>

<!-- ====================================================================== -->

	<facility id="1015636350" x="252383.8987446608" y="9855286.802603234" desc="Equity Bank">
		<activity type="other">
		</activity>

		<activity type="work">
		</activity>

	</facility>

<!-- ====================================================================== -->

	<facility id="1015636360" x="252164.733851219" y="9855386.813914299" desc="Co-operative Bank of Kenya">
		<activity type="other">
		</activity>

		<activity type="work">
		</activity>

	</facility>

<!-- ====================================================================== -->

	<facility id="1015701516" x="254047.7307753917" y="9855354.221027462" desc="Kibera All Nation">
		<activity type="other">
		</activity>

		<activity type="work">
		</activity>

	</facility>

<!-- ====================================================================== -->

	<facility id="1015701522" x="254085.15705715583" y="9855218.177475471" desc="Camp Mestella">
		<activity type="leisure">
		</activity>

		<activity type="work">
		</activity>

	</facility>

<!-- ====================================================================== -->

	<facility id="101811139" x="257672.67683385286" y="9857887.608500663" desc="The Judiciary">
		<activity type="work">
		</activity>

	</facility>

<!-- ====================================================================== -->

	<facility id="101811140" x="257434.7579610259" y="9857835.324384406" desc="Garden Square Restaurant">
		<activity type="work">
		</activity>

	</facility>

<!-- ====================================================================== -->

	<facility id="101811142" x="257635.4320042196" y="9858037.96335897" desc="Nakumatt City">
		<activity type="work">
		</activity>

	</facility>

<!-- ====================================================================== -->

	<facility id="101811144" x="257655.74875888127" y="9858012.518029746" desc="Ellis House">
		<activity type="work">
		</activity>

	</facility>

<!-- ====================================================================== -->

	<facility id="101814681" x="257404.93860308378" y="9857920.292480486" desc="Holy Family Basilica">
		<activity type="other">
		</activity>

		<activity type="work">
		</activity>

	</facility>

<!-- ====================================================================== -->

	<facility id="101814682" x="257645.17169654017" y="9858098.569842342" desc="20th Century Plaza">
		<activity type="work">
		</activity>

	</facility>

<!-- ====================================================================== -->

	<facility id="101814685" x="257597.76759051485" y="9858086.257202387" desc="Prudential Assurance">
		<activity type="work">
		</activity>

	</facility>

<!-- ====================================================================== -->

	<facility id="101814691" x="257545.10303610098" y="9858061.098132346" desc="Jubilee Insurance Place">
		<activity type="work">
		</activity>

	</facility>

<!-- ====================================================================== -->

	<facility id="101814705" x="257394.587791661" y="9857982.386241013" desc="Catholic Bookstore">
		<activity type="work">
		</activity>

	</facility>

<!-- ====================================================================== -->

	<facility id="101814712" x="257314.10012892145" y="9857933.709526299" desc="Catholic parochial School">
		<activity type="education">
		</activity>

		<activity type="work">
		</activity>

	</facility>

<!-- ====================================================================== -->

	<facility id="101983847" x="257471.54309804764" y="9858087.15072808" desc="Eco Bank Towers">
		<activity type="work">
		</activity>

	</facility>

<!-- ====================================================================== -->

	<facility id="101987504" x="257490.75699175886" y="9858141.001477156">
		<activity type="work">
		</activity>

	</facility>

<!-- ====================================================================== -->

	<facility id="101987505" x="257427.14441736438" y="9858147.174705533" desc="Phoenix House">
		<activity type="work">
		</activity>

	</facility>

<!-- ====================================================================== -->

	<facility id="101987506" x="257474.60807724053" y="9858168.059774263" desc="Uganda House">
		<activity type="work">
		</activity>

	</facility>

<!-- ====================================================================== -->

	<facility id="101987509" x="257233.77924323097" y="9858022.240531966" desc="Teleposta towers">
		<activity type="work">
		</activity>

	</facility>

<!-- ====================================================================== -->

	<facility id="101987510" x="257393.0512705738" y="9858230.86166209" desc="Hughes Building">
		<activity type="work">
		</activity>

	</facility>

<!-- ====================================================================== -->

	<facility id="101987511" x="257339.88173586703" y="9858203.755383683" desc="IuM Bank">
		<activity type="work">
		</activity>

	</facility>

<!-- ====================================================================== -->

	<facility id="101987513" x="257305.96996343107" y="9858165.952796577" desc="Tuskeys supermarket">
		<activity type="shopping">
		</activity>

		<activity type="work">
		</activity>

	</facility>

<!-- ====================================================================== -->

	<facility id="101987517" x="257317.63165601148" y="9858192.017183939" desc="Gilifan House">
		<activity type="work">
		</activity>

	</facility>

<!-- ====================================================================== -->

	<facility id="101987521" x="257517.04493781697" y="9858169.716353344" desc="Standerd Building">
		<activity type="work">
		</activity>

	</facility>

<!-- ====================================================================== -->

	<facility id="101987531" x="257528.98536241832" y="9858129.912091568" desc="Central Bank of Africa (CBA)">
		<activity type="work">
		</activity>

	</facility>

<!-- ====================================================================== -->

	<facility id="101987532" x="257547.74372494992" y="9858189.25426041" desc="Standard Chartered Building">
		<activity type="work">
		</activity>

	</facility>

<!-- ====================================================================== -->

	<facility id="101987533" x="257573.46912340814" y="9858139.888358472" desc="Town House">
		<activity type="work">
		</activity>

	</facility>

<!-- ====================================================================== -->

	<facility id="101987538" x="257439.14410168858" y="9858253.537449136" desc="ICEA Building">
		<activity type="work">
		</activity>

	</facility>

<!-- ====================================================================== -->

	<facility id="101987543" x="257528.85527280535" y="9858106.18592339" desc="Hamilton House">
		<activity type="work">
		</activity>

	</facility>

<!-- ====================================================================== -->

	<facility id="103156419" x="255442.12745981745" y="9853851.929566331" desc="Uchumi">
		<activity type="shopping">
		</activity>

		<activity type="work">
		</activity>

	</facility>

<!-- ====================================================================== -->

	<facility id="1036132148" x="252795.0050304887" y="9852587.063152535" desc="Sebastian">
		<activity type="leisure">
		</activity>

		<activity type="work">
		</activity>

	</facility>

<!-- ====================================================================== -->

	<facility id="1038064486" x="261290.44541659465" y="9860595.107931599" desc="mcedo beijing school">
		<activity type="education">
		</activity>

		<activity type="work">
		</activity>

	</facility>

<!-- ====================================================================== -->

	<facility id="1038064487" x="261494.29423678646" y="9860528.755899645" desc="Good will ministries church">
		<activity type="other">
		</activity>

		<activity type="work">
		</activity>

	</facility>

<!-- ====================================================================== -->

	<facility id="1038064492" x="261232.63196807873" y="9860637.567163156" desc="children of God generation church">
		<activity type="other">
		</activity>

		<activity type="work">
		</activity>

	</facility>

<!-- ====================================================================== -->

	<facility id="1038064493" x="261341.057007745" y="9860537.931860223" desc="Glorious celebration centre">
		<activity type="other">
		</activity>

		<activity type="work">
		</activity>

	</facility>

<!-- ====================================================================== -->

	<facility id="1038064494" x="261307.08884009224" y="9860527.407129291" desc="sinai church of God">
		<activity type="other">
		</activity>

		<activity type="work">
		</activity>

	</facility>

<!-- ====================================================================== -->

	<facility id="1038064496" x="261554.12155141102" y="9860541.624657128" desc="Undugu Mercy care">
		<activity type="education">
		</activity>

		<activity type="work">
		</activity>

	</facility>

<!-- ====================================================================== -->

	<facility id="1038064497" x="261324.50050403213" y="9860540.672370698" desc="A.I.P.C.A -4B Church">
		<activity type="other">
		</activity>

		<activity type="work">
		</activity>

	</facility>

<!-- ====================================================================== -->

	<facility id="1038091911" x="260619.250222548" y="9860427.60118869" desc="Redeemed Goslpel Church">
		<activity type="other">
		</activity>

		<activity type="work">
		</activity>

	</facility>

<!-- ====================================================================== -->

	<facility id="1038091921" x="260518.24066884283" y="9860430.780603252" desc="Rockers pub">
		<activity type="leisure">
		</activity>

		<activity type="work">
		</activity>

	</facility>

<!-- ====================================================================== -->

	<facility id="1038091925" x="260554.80820683544" y="9860448.30919315" desc="Hosanah Church">
		<activity type="other">
		</activity>

		<activity type="work">
		</activity>

	</facility>

<!-- ====================================================================== -->

	<facility id="1038091929" x="260762.07881562618" y="9860284.049451673" desc="Cocacola Depot">
		<activity type="shopping">
		</activity>

		<activity type="work">
		</activity>

	</facility>

<!-- ====================================================================== -->

	<facility id="1038091936" x="260739.4839227002" y="9860426.760419693" desc="ST Marks Mathare Church">
		<activity type="other">
		</activity>

		<activity type="work">
		</activity>

	</facility>

<!-- ====================================================================== -->

	<facility id="1038091943" x="260729.67917712228" y="9860301.797487967" desc="EL-Shaddai  Church">
		<activity type="other">
		</activity>

		<activity type="work">
		</activity>

	</facility>

<!-- ====================================================================== -->

	<facility id="1038103773" x="261646.60054828192" y="9860338.51339031" desc="JESUS IS THE WAY">
		<activity type="other">
		</activity>

		<activity type="work">
		</activity>

	</facility>

<!-- ====================================================================== -->

	<facility id="1038103774" x="261522.10092257799" y="9860329.263470864" desc="Baby care">
		<activity type="education">
		</activity>

		<activity type="work">
		</activity>

	</facility>

<!-- ====================================================================== -->

	<facility id="1038103776" x="261765.45414779562" y="9860647.573125562" desc="Bridge international school">
		<activity type="education">
		</activity>

		<activity type="work">
		</activity>

	</facility>

<!-- ====================================================================== -->

	<facility id="1038103781" x="261701.06933496098" y="9860382.83473707" desc="Juja road furnitures">
		<activity type="shopping">
		</activity>

		<activity type="work">
		</activity>

	</facility>

<!-- ====================================================================== -->

	<facility id="1038103784" x="261811.2926668057" y="9860708.622243334">
		<activity type="shopping">
		</activity>

		<activity type="work">
		</activity>

	</facility>

<!-- ====================================================================== -->

	<facility id="1038103794" x="261640.53515267107" y="9860336.22986238" desc="Cala Academy">
		<activity type="education">
		</activity>

		<activity type="work">
		</activity>

	</facility>

<!-- ====================================================================== -->

	<facility id="1038103795" x="261775.24688916607" y="9860557.590363206" desc="Uzima clinic">
		<activity type="medical">
		</activity>

		<activity type="work">
		</activity>

	</facility>

<!-- ====================================================================== -->

	<facility id="1038103798" x="261687.5893096339" y="9860462.052311907" desc="Uzima2 clinic">
		<activity type="medical">
		</activity>

		<activity type="work">
		</activity>

	</facility>

<!-- ====================================================================== -->

	<facility id="1038103800" x="261712.52673529842" y="9860448.091958253" desc="Maji mazuri Academy">
		<activity type="education">
		</activity>

		<activity type="work">
		</activity>

	</facility>

<!-- ====================================================================== -->

	<facility id="1038103802" x="261684.76110011645" y="9860449.164124887" desc="wembley video den">
		<activity type="leisure">
		</activity>

		<activity type="work">
		</activity>

	</facility>

<!-- ====================================================================== -->

	<facility id="1038103803" x="261815.6457365608" y="9860681.250302115" desc="Masterplan video den">
		<activity type="leisure">
		</activity>

		<activity type="work">
		</activity>

	</facility>

<!-- ====================================================================== -->

	<facility id="1038103805" x="261797.26584336496" y="9860626.970842933" desc="Maisha clinic">
		<activity type="medical">
		</activity>

		<activity type="work">
		</activity>

	</facility>

<!-- ====================================================================== -->

	<facility id="1038103806" x="261687.0911808358" y="9860485.65569844" desc="Mama ammam Busaa club">
		<activity type="shopping">
		</activity>

		<activity type="work">
		</activity>

	</facility>

<!-- ====================================================================== -->

	<facility id="1038103812" x="261565.483696809" y="9860290.044344418" desc="Balozi restaurant">
		<activity type="leisure">
		</activity>

		<activity type="work">
		</activity>

	</facility>

<!-- ====================================================================== -->

	<facility id="1038103817" x="261720.00672903616" y="9860408.887504352" desc="Jerusalem">
		<activity type="other">
		</activity>

		<activity type="work">
		</activity>

	</facility>

<!-- ====================================================================== -->

	<facility id="1038172386" x="263491.6587001656" y="9861413.889526594" desc="Madarasatu Umar Alfaruk Mosque">
		<activity type="other">
		</activity>

		<activity type="work">
		</activity>

	</facility>

<!-- ====================================================================== -->

	<facility id="1038172408" x="263359.99471471633" y="9861234.975183915" desc="Hosana Blessed Church">
		<activity type="other">
		</activity>

		<activity type="work">
		</activity>

	</facility>

<!-- ====================================================================== -->

	<facility id="1038172414" x="263735.3345437476" y="9861515.170754172" desc="Afya Health Services">
		<activity type="medical">
		</activity>

		<activity type="work">
		</activity>

	</facility>

<!-- ====================================================================== -->

	<facility id="1038172424" x="263442.2068175236" y="9861634.975077936" desc="Masjidulaqsa Islamic Centre">
		<activity type="other">
		</activity>

		<activity type="work">
		</activity>

	</facility>

<!-- ====================================================================== -->

	<facility id="1038172431" x="263416.33264215896" y="9861335.651308343" desc="Evangelical Victory Church">
		<activity type="other">
		</activity>

		<activity type="work">
		</activity>

	</facility>

<!-- ====================================================================== -->

	<facility id="1038172444" x="263376.6772484811" y="9861241.304409683" desc="Heritage academy">
		<activity type="education">
		</activity>

		<activity type="work">
		</activity>

	</facility>

<!-- ====================================================================== -->

	<facility id="1038172446" x="263322.4246649429" y="9861328.064813219" desc="Multy Supermarket">
		<activity type="shopping">
		</activity>

		<activity type="work">
		</activity>

	</facility>

<!-- ====================================================================== -->

	<facility id="1038189719" x="260751.65730134095" y="9860608.965367004" desc="Wamogori Shop">
		<activity type="shopping">
		</activity>

		<activity type="work">
		</activity>

	</facility>

<!-- ====================================================================== -->

	<facility id="1038189725" x="260795.95943382755" y="9860643.16899506">
		<activity type="work">
		</activity>

	</facility>

<!-- ====================================================================== -->

	<facility id="1038189727" x="260813.45867447535" y="9860617.809774138" desc="Revelation Truth">
		<activity type="other">
		</activity>

		<activity type="work">
		</activity>

	</facility>

<!-- ====================================================================== -->

	<facility id="1038189732" x="260604.6395699636" y="9860621.707793163" desc="M Pesa">
		<activity type="other">
		</activity>

		<activity type="work">
		</activity>

	</facility>

<!-- ====================================================================== -->

	<facility id="1038189733" x="261056.20358586998" y="9860608.05520431" desc="Church of God">
		<activity type="other">
		</activity>

		<activity type="work">
		</activity>

	</facility>

<!-- ====================================================================== -->

	<facility id="1038189738" x="260871.77902225417" y="9860568.415776277" desc="M Pesa">
		<activity type="other">
		</activity>

		<activity type="work">
		</activity>

	</facility>

<!-- ====================================================================== -->

	<facility id="1038189742" x="260824.35201445004" y="9860638.03805049" desc="P.C.E.A. Church">
		<activity type="other">
		</activity>

		<activity type="work">
		</activity>

	</facility>

<!-- ====================================================================== -->

	<facility id="1038189743" x="261200.90348638018" y="9860570.501188349" desc="Salvation Army">
		<activity type="other">
		</activity>

		<activity type="work">
		</activity>

	</facility>

<!-- ====================================================================== -->

	<facility id="1038189750" x="260768.31911713598" y="9860640.569002073" desc="St. Veronica">
		<activity type="other">
		</activity>

		<activity type="work">
		</activity>

	</facility>

<!-- ====================================================================== -->

	<facility id="1038193524" x="261464.18876703692" y="9860302.536978785" desc="OK Petrol Station">
		<activity type="other">
		</activity>

		<activity type="work">
		</activity>

	</facility>

<!-- ====================================================================== -->

	<facility id="1038193525" x="261105.14871867586" y="9860465.863938116" desc="KENWA">
		<activity type="medical">
		</activity>

		<activity type="work">
		</activity>

	</facility>

<!-- ====================================================================== -->

	<facility id="1038193528" x="261223.98634977467" y="9860294.673587477" desc="General Shop">
		<activity type="shopping">
		</activity>

		<activity type="work">
		</activity>

	</facility>

<!-- ====================================================================== -->

	<facility id="1038193541" x="261310.00531044838" y="9860338.73359095" desc="St. Teresa's">
		<activity type="other">
		</activity>

		<activity type="work">
		</activity>

	</facility>
